Version 4
SHEET 1 1428 680
WIRE 688 -208 448 -208
WIRE 400 -176 400 -192
WIRE 512 -144 416 -144
WIRE 544 -144 512 -144
WIRE 640 -144 624 -144
WIRE 208 -128 144 -128
WIRE 336 -128 208 -128
WIRE 512 -128 512 -144
WIRE 448 -112 448 -208
WIRE 448 -112 416 -112
WIRE 400 -64 400 -80
WIRE 640 -64 640 -144
WIRE -352 -32 -352 -48
WIRE -240 -32 -240 -48
WIRE -352 64 -352 48
WIRE -240 64 -240 48
WIRE 144 96 144 80
WIRE 208 96 144 96
WIRE 512 96 512 -48
WIRE 512 96 304 96
WIRE 592 96 512 96
WIRE 688 96 688 -208
WIRE 688 96 672 96
WIRE 720 96 688 96
WIRE 1232 96 1200 96
WIRE 144 112 144 96
WIRE 688 112 688 96
WIRE 688 192 688 176
WIRE 1232 192 1232 96
WIRE 144 208 144 192
WIRE 144 208 48 208
WIRE 288 208 288 144
WIRE 288 208 144 208
FLAG 400 -64 0
FLAG 688 192 0
FLAG 640 -64 0
FLAG 400 -192 3V3
FLAG 144 80 3V2
FLAG 208 -128 DET
FLAG -352 64 0
FLAG -240 64 0
FLAG -352 -48 3V3
FLAG -240 -48 3V2
FLAG 1232 192 0
FLAG 48 208 3V3
FLAG 512 96 PWR
FLAG 688 -208 PWRR
FLAG 1120 96 3V3
SYMBOL res 128 96 R0
SYMATTR InstName R1
SYMATTR Value 100k
SYMBOL res 496 -144 R0
SYMATTR InstName R2
SYMATTR Value 1k
SYMBOL res 640 -160 R90
WINDOW 0 0 56 VBottom 2
WINDOW 3 32 56 VTop 2
SYMATTR InstName R3
SYMATTR Value 100k
SYMBOL res 688 80 R90
WINDOW 0 0 56 VBottom 2
WINDOW 3 32 56 VTop 2
SYMATTR InstName R4
SYMATTR Value 10
SYMBOL cap 672 112 R0
SYMATTR InstName C1
SYMATTR Value 10nF
SYMBOL ind 704 112 R270
WINDOW 0 32 56 VTop 2
WINDOW 3 -3 86 VBottom 2
SYMATTR InstName L1
SYMATTR Value 120nH
SYMATTR SpiceLine Ipk=1.5
SYMBOL nmos 208 144 R270
WINDOW 0 92 21 VRight 2
WINDOW 3 68 19 VRight 2
SYMATTR InstName M1
SYMATTR Value Si1555DL_N
SYMBOL OpAmps\\LT6001 400 -128 M0
SYMATTR InstName U1
SYMBOL current 1120 96 R270
WINDOW 0 32 40 VTop 2
WINDOW 3 -32 40 VBottom 2
WINDOW 123 0 0 Left 0
WINDOW 39 0 0 Left 0
SYMATTR InstName I1
SYMATTR Value 0.02
SYMBOL voltage -352 -48 R0
WINDOW 123 0 0 Left 0
WINDOW 39 0 0 Left 0
SYMATTR InstName V1
SYMATTR Value 3.3
SYMBOL voltage -240 -48 R0
WINDOW 123 0 0 Left 0
WINDOW 39 0 0 Left 0
SYMATTR InstName V2
SYMATTR Value 3.2
TEXT -386 216 Left 2 !.tran 0 0.01 0
